61
charge = 1, multiplicity = 2, [CO2-CoPcH]^{-1}
  C   4.12130305099727      0.00001964084137      0.00001920115422
  O   4.11197252510114     -1.17186167143454     -0.00182722827519
  O   4.11197225571057      1.17190094534303      0.00183295995384
  H   1.40328541604672     -0.00000122801072     -0.00000079065390
  Co  -0.02248508039715     -0.00000082615969     -0.00000051439594
  N   -0.07553930342398      0.00239993718526     -1.90903653907450
  N   -0.07190821239349     -1.90921681053614     -0.00240164634891
  N   -0.05642464843702      2.38848644152891     -2.38237762797470
  N   -0.05642934748584     -2.38247835550713     -2.38838779784081
  C   -0.06883061802419      1.11619968304282     -2.73963511282038
  C   -0.06883151881768     -1.10929660546526     -2.74244251141559
  C   -0.05611125720557     -2.73979408304740     -1.11587153206023
  C   -0.05610728678487     -2.74260056404773      1.10896479311550
  C   -0.08108470757371      0.70766818890586     -4.14002980246157
  C   -0.09228190833736      1.44010650750144     -5.32860644541047
  H   -0.09218657865905      2.53305985992616     -5.31730406822629
  C   -0.10223587959678      0.71203839737479     -6.53099128891345
  C   -0.10223669880149     -0.69553053733813     -6.53277366834760
  C   -0.09228351538619     -1.42664627472778     -5.33223811537839
  H   -0.09218941736243     -2.51962438254372     -5.32371270736087
  C   -0.08108525495105     -0.69722708776695     -4.14180548182253
  C   -0.04791598054029     -4.14014890544562     -0.70761406542415
  C   -0.04298040668790     -5.32865527383984     -1.44005921569677
  H   -0.04335503799815     -5.31741473205450     -2.53300180205812
  C   -0.03551353955943     -6.53114252737659     -0.71198893842543
  C   -0.03551085918270     -6.53292492719617      0.69547708619599
  C   -0.04297476810416     -5.33228712455687      1.42659555527432
  H   -0.04334536880253     -5.32382391221855      2.51956273940319
  C   -0.04791306748310     -4.14192449720179      0.69716962432789
  N   -0.07553765699519     -0.00240161157880      1.90903528947238
  N   -0.07190688183321      1.90921524379819      0.00240067551032
  N   -0.05642367018378     -2.38848823081309      2.38237673246456
  N   -0.05642535192971      2.38247686617726      2.38838691097718
  C   -0.06882860766405     -1.11620130428895      2.73963391884293
  C   -0.06882803707611      1.10929490688020      2.74244127826739
  C   -0.05610842695135      2.73979245780168      1.11587038938359
  C   -0.05610672839658      2.74259901569237     -1.10896596544773
  C   -0.08108053671788     -0.70766985182720      4.14002863979004
  C   -0.09227641942598     -1.44010821797369      5.32860530108154
  H   -0.09218190401934     -2.53306161537553      5.31730298170333
  C   -0.10222799737255     -0.71204008585776      6.53099020244015
  C   -0.10222774422533      0.69552890037814      6.53277255697070
  C   -0.09227589200667      1.42664464676152      5.33223696224643
  H   -0.09218097246470      2.51962279646176      5.32371151968727
  C   -0.08108005330019      0.69722544318756      4.14180428891351
  C   -0.04791305264299      4.14014735187179      0.70761303469058
  C   -0.04297638367901      5.32865382770975      1.44005809056151
  H   -0.04334987469839      5.31741334350719      2.53300068257810
  C   -0.03550994297869      6.53114108297536      0.71198772364685
  C   -0.03550872281954      6.53292336391377     -0.69547831895299
  C   -0.04297369379518      5.33228549656773     -1.42659666252353
  H   -0.04334536901439      5.32382207914205     -2.51956385595894
  C   -0.04791157977082      4.14192293674746     -0.69717065580176
  H   -0.02912104304332     -7.48447336867854     -1.24746174093519
  H   -0.02911644662460     -7.48761121200654      1.22852917829321
  H   -0.10977498949749     -1.24748263363944      7.48433602482677
  H   -0.10977448820984      1.22855086776764      7.48747362833223
  H   -0.02911662513738      7.48447193119094      1.24746055323994
  H   -0.02911458147492      7.48760960875684     -1.22853045289772
  H   -0.10978397472822      1.24748092827734     -7.48433706030066
  H   -0.10978533718219     -1.22855243870152     -7.48747471014118

61
charge = 1, multiplicity = 2,  [CO2H-CoPc]^{-1}
  C   2.21350270269119     -0.14257586435171     -0.00301873805614
  O   2.76517779627307     -1.20270813861745     -0.01070578612295
  O   2.84899207009874      1.03745743620622      0.00393319943972
  H   2.16477859979306      1.73631345472046      0.00785014243888
  Co  0.27253764022205      0.00698593654498      0.00003830989034
  N   0.18315270408806      0.01855440992721     -1.91120501837297
  N   0.03102614797737     -1.89569610186886     -0.00215706726325
  N   0.12771680787443      2.40521673985970     -2.38465396654850
  N   0.09055243310066     -2.36544266625995     -2.38577106422926
  C   0.20545660137007      1.13181799485698     -2.74040718179900
  C   0.18033677325924     -1.09620682192699     -2.74164088054622
  C   0.00116350024444     -2.72021536842981     -1.11394437498696
  C   0.00156140076574     -2.72299252567662      1.10748210710371
  C   0.26505872043944      0.72126693966667     -4.13921716541904
  C   0.30784376077875      1.45171914296843     -5.32820057796348
  H   0.31352967525083      2.54469132087723     -5.31896180436415
  C   0.34635997219614      0.72206727841041     -6.52930546978626
  C   0.33003052424374     -0.68516384136035     -6.52985768900647
  C   0.27409417250723     -1.41459007410492     -5.32932633799195
  H   0.25457694238788     -2.50737070102077     -5.31992363283951
  C   0.24784210030189     -0.68440240074177     -4.13979379697384
  C   -0.12072733495143     -4.11729640055952     -0.70749484532512
  C   -0.21437924327167     -5.30144177071519     -1.43956989748863
  H   -0.20888012221204     -5.29105924651607     -2.53252105938940
  C   -0.31079135025554     -6.50107085579069     -0.71120444143156
  C   -0.31039361732557     -6.50285585575071      0.69533750037283
  C   -0.21360985968038     -5.30507534377197      1.42669882732241
  H   -0.20751946137723     -5.29747971535444      2.51966966871949
  C   -0.12046416194109     -4.11906940141335      0.69758377225897
  N   0.18374558432946      0.01384269121727      1.91124937655974
  N   0.15790061514470      1.93656159667247      0.00249104279695
  N   0.09127536398310     -2.37134741147289      2.38018980714466
  N   0.12659969779648      2.39931631329441      2.39071346343838
  C   0.18085335838959     -1.10295066426308      2.73905707456468
  C   0.20500218221746      1.12506517879736      2.74325417669057
  C   0.05458326239273      2.76199698137064      1.12202659804202
  C   0.05527241195986      2.76474355413083     -1.11510829781045
  C   0.24773897311284     -0.69453221928105      4.13821828573621
  C   0.27383363427767     -1.42762486171602      5.32597276125124
  H   0.25481149072279     -2.52038816584991      5.31388098759503
  C   0.32887131142225     -0.70111085654845      6.52830104623530
  C   0.34449801335414      0.70613206297160      6.53119241225852
  C   0.30617355968015      1.43869816643044      5.33186251671339
  H   0.31127783974699      2.53169178341454      5.32529944752087
  C   0.26429536492793      0.71112904378856      4.14107415258234
  C   -0.12972867211983      4.14740419303663      0.70889219944851
  C   -0.28558785233131      5.32773609365988      1.44013595167168
  H   -0.28351660251620      5.31729736890192      2.53309432813467
  C   -0.44318994007319      6.51856560570812      0.71215475647195
  C   -0.44270596599055      6.52030497362646     -0.69627131297884
  C   -0.28462611288651      5.33127635869240     -1.42708509905287
  H   -0.28178568033857      5.32353897176791     -2.52006345226953
  C   -0.12924274219089      4.14913387885040     -0.69866204094976
  H   -0.38471786915529     -7.45134489913772     -1.24701088686870
  H   -0.38412285602806     -7.45448074658564      1.22876832870426
  H   0.35867557533103     -1.23777902920231      7.48049595548667
  H   0.38607864937813      1.23812867730100      7.48556840249939
  H   -0.56833061093555      7.46389155690007      1.24720857828461
  H   -0.56745440625909      7.46695573640611     -1.22906908885042
  H   0.38856049165811      1.25637987479292     -7.48235959043195
  H   0.35994759499021     -1.21951845161339     -7.48334890178377

59
charge = 0, multiplicity = 2,   [CO-CoPc]
  C   2.23966709870171     -0.02874959557776      0.00097711388811
  O   3.38843980642370     -0.03299492885416      0.00252824140052
  Co  0.35147337243273     -0.02087980215337     -0.00001004841382
  N   0.12601517460530     -0.01755977889589     -1.93569982855853
  N   0.11742206921006     -1.95563467378673     -0.00255031927247
  N   0.10161605910148      2.37276027587840     -2.38671073657151
  N   0.08126539019041     -2.40646148061368     -2.39272812874977
  C   0.09544233777928      1.09960505889167     -2.75145916273898
  C   0.08585485314721     -1.13238420726481     -2.75424555733739
  C   0.07886837172280     -2.77124333487088     -1.11956325674552
  C   0.07868943046350     -2.77405351180577      1.11240813162097
  C   0.03368443744905      0.69000369194161     -4.14897446383025
  C   -0.02415446885400      1.41937599548750     -5.34218640777705
  H   -0.02215959251429      2.51266499680486     -5.32697679406515
  C   -0.08202262602129      0.69553663013761     -6.53877021563026
  C   -0.08813384566800     -0.71722807840352     -6.54054091291522
  C   -0.03654184831474     -1.44456099354761     -5.34578392562879
  H   -0.04399392991076     -2.53786095211600     -5.33340097717795
  C   0.02759865352855     -0.71873620883683     -4.15073508347384
  C   0.01301564684034     -4.16849379972936     -0.70972150112134
  C   -0.05295090477599     -5.36143084478984     -1.43886056230437
  H   -0.05550230784665     -5.34613148517473     -2.53214704190830
  C   -0.11276538331783     -6.55774073443136     -0.71478457566964
  C   -0.11290099895949     -6.55952665091363      0.69800748684361
  C   -0.05322348828915     -5.36505569134549      1.42512931481865
  H   -0.05598714128972     -5.35254577199869      2.51845019832675
  C   0.01288218472014     -4.17026952349596      0.69903859267295
  N   0.12549320786967     -0.02240156030476      1.93550850963027
  N   0.13389587258419      1.91562969643219      0.00233749774527
  N   0.08106166935307     -2.41247106850446      2.38648530333583
  N   0.10138452837518      2.36675520035645      2.39254852073639
  C   0.08566633241843     -1.13931730222611      2.75123325052277
  C   0.09520644411298      1.09269021518197      2.75411161292487
  C   0.10199079176983      2.73152167158775      1.11938212018834
  C   0.10214706614511      2.73433521829376     -1.11263380987455
  C   0.02771446334798     -0.72920990251894      4.14877484712140
  C   -0.03625381304682     -1.45808831574730      5.34197228852519
  H   -0.04368359990335     -2.55135337302274      5.32677181190336
  C   -0.08771862792165     -0.73381252296115      6.53858555443603
  C   -0.08165657181207      0.67895387749369      6.54041442919612
  C   -0.02396596439613      1.40584879567517      5.34567850050528
  H   -0.02202362295995      2.49917295432202      5.33327916637941
  C   0.03374358804460      0.67953407432843      4.15059488935584
  C   0.04777252712952      4.12926328335597      0.70951767629926
  C   -0.00849723106316      5.32270040553680      1.43863972990762
  H   -0.01135701250812      5.30745775870419      2.53192745457245
  C   -0.05838959331746      6.51947638400764      0.71455911507019
  C   -0.05828026565026      6.52126585472636     -0.69822579440054
  C   -0.00827643727594      5.32633128160741     -1.42533747119601
  H   -0.01096768925801      5.31388484353037     -2.51866056605034
  C   0.04788221831052      4.13104366142643     -0.69924518134792
  H   -0.16120286228758     -7.51118185318169     -1.24929830359126
  H   -0.16144458338379     -7.51432246747909      1.23008438717458
  H   -0.13439674573289     -1.26820757516010      7.49219645580942
  H   -0.12375221400037      1.21124898775417      7.49541107943868
  H   -0.09912499058436      7.47326890935881      1.24909888053655
  H   -0.09893180687903      7.47641537596529     -1.23034233268700
  H   -0.12420754391622      1.23027593375485     -7.49239844379203
  H   -0.13493744295804     -1.24918035869758     -7.49551206853401

59
charge = 1, multiplicity = 2, CoPc
  C   2.23953127978105      0.03290246092831      0.00004915111465
  O   3.38820455601776      0.05064750819040      0.00004127822752
  Co  0.35125258696622      0.02063791398815      0.00003273557689
  N   0.12552899954302      0.02203314083852     -1.93543075773723
  N   0.13390039531903     -1.91623909936139     -0.00240938142559
  N   0.08093829453354      2.41213161623900     -2.38658685597290
  N   0.10146537053928     -2.36715375413692     -2.39257688422770
  C   0.08541209425242      1.13892029252593     -2.75122343251625
  C   0.09525589883981     -1.09308794396112     -2.75410268060384
  C   0.10205625970920     -2.73203013407849     -1.11943506130615
  C   0.10204685633123     -2.73484498809560      1.11255194008758
  C   0.02730555625247      0.72879631638569     -4.14872902661867
  C   -0.03685421058829      1.45765711954292     -5.34193434172574
  H   -0.04441190218067      2.55091802092297     -5.32667772258055
  C   -0.08834979776505      0.73335627837323     -6.53853224675743
  C   -0.08209540154032     -0.67941735645502     -6.54034840158458
  C   -0.02416898323463     -1.40628900215094     -5.34562195622414
  H   -0.02204551317142     -2.49961018809447     -5.33316355134700
  C   0.03355517379829     -0.67993693454021     -4.15053809432470
  C   0.04790410393036     -4.12981520950661     -0.70959172146950
  C   -0.00830155065050     -5.32325801574546     -1.43869975664550
  H   -0.01108311154556     -5.30802956737411     -2.53198774728806
  C   -0.05826716472880     -6.52005520904043     -0.71462638612636
  C   -0.05827679939181     -6.52184281269083      0.69815254493679
  C   -0.00832057918749     -5.32688287597243      1.42525747877114
  H   -0.01111763983272     -5.31443146471917      2.51858012419933
  C   0.04789586662913     -4.13159512043232      0.69917767885090
  N   0.12552782394176      0.01716728392917      1.93549327912094
  N   0.11743746703327      1.95551473592688      0.00246902459595
  N   0.10145001560783     -2.37317396061497      2.38660776084860
  N   0.08096489259353      2.40611098657598      2.39267732462988
  C   0.09524682805498     -1.10002335319717      2.75134358753517
  C   0.08542276377637      1.13198488502995      2.75410606495448
  C   0.07879291852793      2.77106831539892      1.11956071139187
  C   0.07877449605249      2.77388452365745     -1.11255605842689
  C   0.03354545174976     -0.69040904163336      4.14881551340313
  C   -0.02419006188106     -1.41979372306393      5.34204973742958
  H   -0.02207409525718     -2.51308026619992      5.32680903995435
  C   -0.08212004472215     -0.69595812068837      6.53861621319759
  C   -0.08836501041281      0.71681566658001      6.54038217657896
  C   -0.03685605130520      1.44415296222070      5.34562629022922
  H   -0.04440745452119      2.53744865011681      5.33315152754964
  C   0.02730811582330      0.71832458512100      4.15057352014518
  C   0.01331443947097      4.16831397813591      0.70966103399317
  C   -0.05238845007386      5.36127848357425      1.43877225050042
  H   -0.05503573145212      5.34602972755772      2.53205884969074
  C   -0.11181980533213      6.55762004232943      0.71469000900333
  C   -0.11183557313186      6.55940827896540     -0.69809282550353
  C   -0.05242002189728      5.36490460417103     -1.42520715567977
  H   -0.05509195628070      5.35243350337866     -2.51852840143094
  C   0.01329990437140      4.17009453418395     -0.69912479454016
  H   -0.09897409166909     -7.47386122461566     -1.24915858148055
  H   -0.09899164302410     -7.47699979493920      1.23026606377357
  H   -0.12425442742973     -1.23066622566787      7.49227352674027
  H   -0.13520488203948      1.24873200471858      7.49537269638158
  H   -0.16004367833648      7.51107266422502      1.24921563642516
  H   -0.16007151872782      7.51421233076363     -1.23019908586537
  H   -0.13518517351495      1.26769502388453     -7.49216997594407
  H   -0.12421954263459     -1.21170307340194     -7.49536021324297

57
charge = 1, multiplicity = 1, [CoPc]^{-1}
  Co  -0.02151238053709      0.00000023143422     -0.00000047852420
  N   -0.02169959204472      0.00241450679670     -1.91835065522384
  N   -0.02171316829894     -1.91835505722732     -0.00241460100783
  N   -0.02172239762200      2.39043021174632     -2.38441314107160
  N   -0.02173350946455     -2.38441195895834     -2.39043064849386
  C   -0.02163502464329      1.11735169569523     -2.74464528064139
  C   -0.02164107413073     -1.11043031024435     -2.74745611899909
  C   -0.02183741919268     -2.74464391616257     -1.11735036701913
  C   -0.02183068112135     -2.74745495782640      1.11042865473941
  C   -0.02149463686098      0.70806763190917     -4.14584349538467
  C   -0.02133417174087      1.43986150108092     -5.33468487588340
  H   -0.02133151663379      2.53284243221846     -5.32377146065867
  C   -0.02116917116152      0.71188693547226     -6.53738348581803
  C   -0.02117369497521     -0.69536226029543     -6.53916467066348
  C   -0.02134324591276     -1.42638302623408     -5.33831413646389
  H   -0.02134759671513     -2.51938776373994     -5.33017530633716
  C   -0.02149910023849     -0.69760665647631     -4.14761990084274
  C   -0.02209430550547     -4.14584610497162     -0.70807005352029
  C   -0.02231993097142     -5.33468736172127     -1.43986419037128
  H   -0.02232105260137     -5.32376899692470     -2.53284502669323
  C   -0.02255118498968     -6.53738411121227     -0.71188730427553
  C   -0.02254640119315     -6.53916545572317      0.69536171738382
  C   -0.02231027645750     -5.33831691726857      1.42638497253531
  H   -0.02230388871117     -5.33017298213999      2.51938963019980
  C   -0.02208953410100     -4.14762270928466      0.69760846464510
  N   -0.02169885198116     -0.00241410241097      1.91834956087357
  N   -0.02171359348429      1.91835547876477      0.00241356775474
  N   -0.02172089555818     -2.39042978693767      2.38441213480733
  N   -0.02173309979679      2.38441234963048      2.39042960370359
  C   -0.02163368285877     -1.11735126936709      2.74464421500144
  C   -0.02164024837562      1.11043070139424      2.74745505536169
  C   -0.02183759443745      2.74464434103898      1.11734933166226
  C   -0.02183171995602      2.74745540457516     -1.11042964732403
  C   -0.02149286754780     -0.70806730918606      4.14584235090085
  C   -0.02133182967463     -1.43986121430786      5.33468368945397
  H   -0.02132892984623     -2.53284214728159      5.32377033241686
  C   -0.02116655507329     -0.71188669750993      6.53738231728432
  C   -0.02117140369965      0.69536248933628      6.53916359447998
  C   -0.02134154172801      1.42638329376287      5.33831311493800
  H   -0.02134613611478      2.51938802124273      5.33017426755110
  C   -0.02149765610220      0.69760697943777      4.14761884502002
  C   -0.02209490876717      4.14584656118007      0.70806905902132
  C   -0.02232046133260      5.33468777535210      1.43986325020531
  H   -0.02232112956096      5.32376919417489      2.53284408213557
  C   -0.02255226672144      6.53738456518247      0.71188644854181
  C   -0.02254800945796      6.53916596496018     -0.69536256177832
  C   -0.02231194181488      5.33831744348129     -1.42638584127049
  H   -0.02230595639783      5.33017378180558     -2.51939049493609
  C   -0.02209067985163      4.14762316929886     -0.69760944296273
  H   -0.02273343103555     -7.49058031274740     -1.24765484074621
  H   -0.02272492904518     -7.49371733744868      1.22870982277351
  H   -0.02103678471191     -1.24765615285221      7.49057730895617
  H   -0.02104539434190      1.22871260075296      7.49371425152316
  H   -0.02273446821204      7.49058072411888      1.24765403432812
  H   -0.02272690337678      7.49371784479036     -1.22871068448607
  H   -0.02103989538639      1.24765632911599     -7.49057852119956
  H   -0.02104789667256     -1.22871242206534     -7.49371529637304

58
charge = 0, multiplicity = 2, [CoPcH]
  H   1.45333543385658      0.00000070022001     -0.00000073527256
  Co  0.02366859815829      0.00000022111043     -0.00000045485479
  N   -0.03090601774690      0.00240889761528     -1.91491595931217
  N   -0.03084507614262     -1.91491755154283     -0.00240930607879
  N   -0.01781180301312      2.38960611908612     -2.38359213749274
  N   -0.01781167354558     -2.38359194782168     -2.38960615130524
  C   -0.02255195020239      1.11785966077112     -2.74254953892853
  C   -0.02255061030962     -1.11094591666899     -2.74536176191579
  C   -0.02239306183513     -2.74254742944931     -1.11785854354943
  C   -0.02239151473554     -2.74535958139363      1.11094407340551
  C   -0.02693334531391      0.70877888446678     -4.13929474626437
  C   -0.03229950750259      1.43879182372734     -5.33403908043510
  H   -0.03272056086978      2.53205823953623     -5.31861908027953
  C   -0.03560276141730      0.71488275799561     -6.53146582292930
  C   -0.03560194913357     -0.69837166963963     -6.53325537714182
  C   -0.03229780381696     -1.42531537885757     -5.33766711636938
  H   -0.03271766993272     -2.51861698962664     -5.32502376508040
  C   -0.02693232752815     -0.69833626596305     -4.14107335746486
  C   -0.02653710305996     -4.13929577719264     -0.70878018624061
  C   -0.03171158472198     -5.33403922571490     -1.43879373086410
  H   -0.03214161206260     -5.31862257485230     -2.53206005529195
  C   -0.03481211533427     -6.53146673185881     -0.71488234450904
  C   -0.03481108886197     -6.53325634028668      0.69837015554107
  C   -0.03170945409065     -5.33766741607434      1.42531633075801
  H   -0.03213794033096     -5.32502753521749      2.51861785461262
  C   -0.02653588321064     -4.14107437366918      0.69833686098373
  N   -0.03090569493772     -0.00240854326030      1.91491502144493
  N   -0.03084535520287      1.91491794604717      0.00240837873058
  N   -0.01781117714918     -2.38960574469971      2.38359121613832
  N   -0.01781138740033      2.38359231513137      2.38960520376289
  C   -0.02255142891195     -1.11785929520220      2.74254860180543
  C   -0.02255024085007      1.11094627803996      2.74536079597722
  C   -0.02239305790441      2.74254783635026      1.11785760434639
  C   -0.02239201217653      2.74535992196994     -1.11094499367012
  C   -0.02693268630114     -0.70877849778802      4.13929385438485
  C   -0.03229860607513     -1.43879140746894      5.33403821596016
  H   -0.03271963601163     -2.53205782165486      5.31861833291029
  C   -0.03560170914772     -0.71488232490061      6.53146497851605
  C   -0.03560098381557      0.69837210231411      6.53325446144196
  C   -0.03229707378512      1.42531575095197      5.33766615943709
  H   -0.03271699507683      2.51861734547731      5.32502274012494
  C   -0.02693175918768      0.69833664577938      4.14107239862398
  C   -0.02653714731606      4.13929618691581      0.70877919433150
  C   -0.03171126372087      5.33403972569158      1.43879262860769
  H   -0.03214090738538      5.31862311794124      2.53205896281774
  C   -0.03481188333474      6.53146715942679      0.71488110595009
  C   -0.03481132319806      6.53325666848931     -0.69837141165609
  C   -0.03171001755666      5.33766765325196     -1.42531747399665
  H   -0.03213882064561      5.32502758388815     -2.51861898602458
  C   -0.02653632020797      4.14107471860655     -0.69833784360409
  H   -0.03716129889226     -7.48622269499795     -1.24926805929171
  H   -0.03715948752060     -7.48936428807060      1.23033273605326
  H   -0.03811138949056     -1.24926873442704      7.48622004181308
  H   -0.03811010190338      1.23033550888130      7.48936144878180
  H   -0.03716074801132      7.48622315956782      1.24926674054549
  H   -0.03715982255933      7.48936464745987     -1.23033399227552
  H   -0.03811260476873      1.24926919821327     -7.48622084818661
  H   -0.03811120811027     -1.23033501323184     -7.48936240378845

58
charge = 1, multiplicity = 2, [CoPcH]^{-1}
  H   1.44682935703902      0.00000064309242     -0.00000074512571
  Co  0.01746256333058      0.00000023717601     -0.00000047201547
  N   -0.03453856266886      0.00240099949983     -1.90902219563801
  N   -0.03436157424875     -1.90903416629224     -0.00240144485404
  N   -0.01828246480318      2.38845187148986     -2.38244156227282
  N   -0.01828168826558     -2.38244121862267     -2.38845206596454
  C   -0.02448371087010      1.11599751138562     -2.73970990421527
  C   -0.02448213070239     -1.10909174488302     -2.74251708647511
  C   -0.02389957888462     -2.73971424493393     -1.11599544382081
  C   -0.02389849823132     -2.74252133518167      1.10908891702601
  C   -0.02784262295042      0.70764141759486     -4.14020593076933
  C   -0.03244562869483      1.44002183836312     -5.32882577592686
  H   -0.03280194674435      2.53297966483676     -5.31745045847798
  C   -0.03509786445172      0.71202676127647     -6.53131673209211
  C   -0.03509678608153     -0.69551587019709     -6.53309908555973
  C   -0.03244336052626     -1.42655876054249     -5.33245711507944
  H   -0.03279797423744     -2.51954152160273     -5.32385823202187
  C   -0.02784137982999     -0.69719707930228     -4.14198173010001
  C   -0.02629793271875     -4.14021382517488     -0.70764285396538
  C   -0.03016262840082     -5.32883518929864     -1.44002389708052
  H   -0.03056663599121     -5.31746269728571     -2.53298163513293
  C   -0.03201226459450     -6.53132752686125     -0.71202677243605
  C   -0.03201143606831     -6.53310993742660      0.69551466920248
  C   -0.03016092277318     -5.33246669759054      1.42655979581587
  H   -0.03056363953259     -5.32387083397356      2.51954244763317
  C   -0.02629701013623     -4.14198961170439      0.69719780162230
  N   -0.03453809676298     -0.00240062327443      1.90902125509891
  N   -0.03436184807474      1.90903462816070      0.00240052351544
  N   -0.01828175227227     -2.38845148096873      2.38244065926915
  N   -0.01828144975389      2.38244160654545      2.38845117514800
  C   -0.02448301212507     -1.11599713271403      2.73970896815621
  C   -0.02448171158942      1.10909210719606      2.74251615232993
  C   -0.02389959925682      2.73971469849840      1.11599455066272
  C   -0.02389897425880      2.74252173628983     -1.10908981841604
  C   -0.02784183404972     -0.70764105225817      4.14020501204387
  C   -0.03244464008975     -1.44002150528932      5.32882485121557
  H   -0.03280083227087     -2.53297934163858      5.31744950916865
  C   -0.03509685572165     -0.71202645228885      6.53131582505901
  C   -0.03509589767066      0.69551619120692      6.53309816257490
  C   -0.03244262743323      1.42655908685430      5.33245619803942
  H   -0.03279733070144      2.51954184001236      5.32385722826513
  C   -0.02784071431081      0.69719743521580      4.14198079725748
  C   -0.02629796482301      4.14021429206016      0.70764191887138
  C   -0.03016230897810      5.32883576144381      1.44002281925443
  H   -0.03056596181482      5.31746335095298      2.53298054919345
  C   -0.03201203533252      6.53132802861974      0.71202554502778
  C   -0.03201162067409      6.53311032595498     -0.69551590522729
  C   -0.03016142512870      5.33246699421713     -1.42656089772298
  H   -0.03056442208169      5.32387092048088     -2.51954354601816
  C   -0.02629742055678      4.14199001468837     -0.69719874647841
  H   -0.03321524556577     -7.48471047935912     -1.24744682981248
  H   -0.03321379076232     -7.48784764402338      1.22851486155466
  H   -0.03692783983585     -1.24744737069213      7.48469722146285
  H   -0.03692614894208      1.22851733905092      7.48783427199462
  H   -0.03321474272119      7.48471104164233      1.24744550079282
  H   -0.03321404454881      7.48784803223889     -1.22851612007047
  H   -0.03692897855562      1.24744765377621     -7.48469813599351
  H   -0.03692708255891     -1.22851698304842     -7.48783521476051
